/*--------------------------------*- C++ -*----------------------------------*\
  =========                 |
  \\      /  F ield         | OpenFOAM: The Open Source CFD Toolbox
   \\    /   O peration     | Website:  https://openfoam.org
    \\  /    A nd           | Version:  6
     \\/     M anipulation  |
\*---------------------------------------------------------------------------*/
FoamFile
{
    version     2.0;
    format      ascii;
    class       dictionary;
    location    "system";
    object      setFieldsDict;
}
// * * * * * * * * * * * * * * * * * * * * * * * * * * * * * * * * * * * * * //


defaultFieldValues
(
    volScalarFieldValue T 1200
);

regions
(
    boxToCell
    {

    boxes
    (
        (0.002 0.002 0) (0.006 0.006 8e-5) // box-1
    );
        fieldValues
        (
            volScalarFieldValue T 1300
        );
    }
);


// ************************************************************************* //


